<routes xmlns:xsi="http://www.w3.org/2001/XMLSchema-instance" xsi:noNamespaceSchemaLocation="http://sumo.dlr.de/xsd/routes_file.xsd">
    <vType id="t_0" vClass="bus"/>
    <flow id="f_0" type="t_0" line="bus" begin="0.00" from="E2" to="E46" end="3600.00" number="3">
        <stop busStop="905508" duration="20"/>
        <stop busStop="906077" duration="20"/>
        <stop busStop="905996" duration="20"/>
        <stop busStop="905994" duration="20"/>
        <stop busStop="905876" duration="20"/>
        <stop busStop="905873" duration="20"/>
        <stop busStop="906073" duration="20"/>
        <stop busStop="212903" duration="20"/>
        <stop busStop="905540" duration="20"/>
        <stop busStop="905829" duration="20"/>
        <stop busStop="905830" duration="20"/>
        <stop busStop="905748" duration="20"/>
        <stop busStop="210966" duration="20"/>
        <stop busStop="211090" duration="20"/>
        <stop busStop="905535" duration="20"/>
        <stop busStop="905463" duration="20"/>
        <stop busStop="905465" duration="20"/>
        <stop busStop="212908" duration="20"/>
        <stop busStop="906171" duration="20"/>
        <stop busStop="906139" duration="20"/>
        <stop busStop="906136" duration="20"/>
        <stop busStop="906143" duration="20"/>
        <stop busStop="906140" duration="20"/>
        <stop busStop="906134" duration="20"/>
        <stop busStop="906132" duration="20"/>
        <stop busStop="905373" duration="20"/>
        <stop busStop="905261" duration="20"/>
        <stop busStop="905255" duration="20"/>
        <stop busStop="905252" duration="20"/>
        <stop busStop="905258" duration="20"/>
        <stop busStop="901538" duration="20"/>
        <stop busStop="901979" duration="20"/>
        <stop busStop="902260" duration="20"/>
        <stop busStop="211574" duration="20"/>
        <stop busStop="902149" duration="20"/>
        <stop busStop="902256" duration="20"/>
        <stop busStop="902212" duration="20"/>
        <stop busStop="901980" duration="20"/>
        <stop busStop="900581" duration="20"/>
        <stop busStop="900605" duration="20"/>
        <stop busStop="900568" duration="20"/>
        <stop busStop="900603" duration="20"/>
        <stop busStop="900542" duration="20"/>
        <stop busStop="900540" duration="20"/>
        <stop busStop="902145" duration="20"/>
    </flow>

</routes>
